Version 4
SHEET 1 5168 11324
WIRE 192 112 -32 112
WIRE 352 112 352 80
WIRE 352 112 304 112
WIRE 400 112 352 112
WIRE 560 112 464 112
WIRE 704 112 560 112
WIRE 880 112 704 112
WIRE 1088 112 880 112
WIRE 1776 112 1088 112
WIRE 1952 112 1872 112
WIRE 2112 112 1952 112
WIRE 2304 112 2192 112
WIRE 2400 112 2304 112
WIRE 2464 112 2400 112
WIRE 2528 112 2464 112
WIRE 304 128 304 112
WIRE 704 128 704 112
WIRE 1088 128 1088 112
WIRE 1952 128 1952 112
WIRE 2304 128 2304 112
WIRE -32 160 -32 112
WIRE 192 160 192 112
WIRE 880 176 880 112
WIRE 2400 176 2400 112
WIRE 2528 176 2528 112
WIRE 304 224 304 208
WIRE 368 224 304 224
WIRE 1088 224 1088 208
WIRE 1088 224 944 224
WIRE 304 240 304 224
WIRE 368 240 368 224
WIRE 704 240 704 192
WIRE 1952 240 1952 208
WIRE 2128 240 1952 240
WIRE 2304 240 2304 208
WIRE 2304 240 2160 240
WIRE 1088 256 1088 224
WIRE 1952 256 1952 240
WIRE 2304 256 2304 240
WIRE 2128 272 2128 240
WIRE 2160 272 2160 240
WIRE 2528 272 2528 256
WIRE -32 288 -32 240
WIRE 64 288 -32 288
WIRE 192 288 192 240
WIRE 192 288 64 288
WIRE 1456 288 1408 288
WIRE 880 304 880 272
WIRE 1024 304 880 304
WIRE 1616 304 1520 304
WIRE 1856 304 1856 160
WIRE 1856 304 1696 304
WIRE 1456 320 1216 320
WIRE 64 336 64 288
WIRE 304 336 304 320
WIRE 400 336 304 336
WIRE 560 336 560 112
WIRE 560 336 464 336
WIRE 1952 352 1952 336
WIRE 2144 352 2144 336
WIRE 2144 352 2112 352
WIRE 2112 368 2112 352
WIRE 2304 368 2304 336
WIRE 2304 368 2112 368
WIRE 2400 368 2400 256
WIRE 2400 368 2368 368
WIRE 880 384 880 304
WIRE 2112 384 2112 368
WIRE 2400 384 2400 368
WIRE 1088 400 1088 352
WIRE 1216 400 1216 320
WIRE 1216 400 1088 400
WIRE 1856 496 1856 304
WIRE 2112 496 2112 464
WIRE 2112 496 1984 496
WIRE 2400 496 2400 464
WIRE 880 512 880 464
WIRE 1088 512 1088 464
WIRE 1216 512 1216 464
WIRE 1440 512 1440 480
WIRE 2112 528 2112 496
WIRE -16 560 -48 560
WIRE 128 560 48 560
WIRE 176 560 128 560
WIRE 304 560 240 560
WIRE 416 560 304 560
WIRE 512 560 416 560
WIRE 704 560 608 560
WIRE 720 560 704 560
WIRE 1984 576 1984 496
WIRE 1984 576 1904 576
WIRE 416 592 416 560
WIRE 704 608 704 560
WIRE 128 624 128 560
WIRE 304 624 304 560
WIRE 1856 624 1856 592
WIRE 2112 624 2112 608
WIRE 416 688 416 672
WIRE 560 688 560 624
WIRE 560 688 416 688
WIRE 416 704 416 688
WIRE 1408 704 1408 288
WIRE 2368 704 2368 368
WIRE 2368 704 1408 704
WIRE 128 736 128 688
WIRE 304 736 304 688
WIRE 304 736 128 736
WIRE 304 784 304 736
WIRE 416 784 416 768
WIRE 704 784 704 672
FLAG 368 240 0
FLAG 704 240 0
FLAG 2464 112 Vout
FLAG 2400 496 0
FLAG 304 784 0
FLAG -48 560 Vin+
FLAG 352 80 Vin+
FLAG 1440 512 0
FLAG 1440 480 Vee
FLAG 1488 336 Vee
FLAG 1488 272 Vcc
FLAG 704 784 0
FLAG 720 560 Vcc
FLAG 416 784 0
FLAG 1216 512 0
FLAG 1088 512 0
FLAG 880 512 0
FLAG 1856 624 0
FLAG 2112 624 0
FLAG 2112 304 Vee
FLAG 2176 304 Vcc
FLAG 1952 352 0
FLAG 64 336 0
FLAG 2528 272 0
SYMBOL ind2 176 144 R0
WINDOW 3 36 80 Left 1
SYMATTR Value 336.11µ
SYMATTR InstName L1
SYMATTR Type ind
SYMBOL ind2 320 224 R180
WINDOW 0 36 80 Left 2
WINDOW 3 36 40 Left 2
SYMATTR InstName L2
SYMATTR Value 1µ
SYMATTR Type ind
SYMBOL ind2 320 336 R180
WINDOW 0 36 80 Left 2
WINDOW 3 36 40 Left 2
SYMATTR InstName L3
SYMATTR Value 1µ
SYMATTR Type ind
SYMBOL cap 688 128 R0
SYMATTR InstName C1
SYMATTR Value 9.2m
SYMBOL nmos 1776 160 R270
SYMATTR InstName M1
SYMATTR Value IRF540
SYMBOL res 2384 368 R0
SYMATTR InstName R3
SYMATTR Value 7500
SYMBOL res 2384 160 R0
SYMATTR InstName R2
SYMATTR Value 7500
SYMBOL voltage -32 144 R0
WINDOW 3 24 96 Left 1
WINDOW 123 0 0 Left 0
WINDOW 39 25 118 Left 1
SYMATTR Value SINE(0 311 60)
SYMATTR SpiceLine Rser=0.000001
SYMATTR InstName V1
SYMBOL cap 48 544 R90
WINDOW 0 0 32 VBottom 2
WINDOW 3 32 32 VTop 2
SYMATTR InstName C2
SYMATTR Value 2.5m
SYMBOL cap 288 624 R0
SYMATTR InstName C3
SYMATTR Value 2.5m
SYMBOL diode 400 128 R270
WINDOW 0 32 32 VTop 2
WINDOW 3 0 32 VBottom 2
SYMATTR InstName D1
SYMATTR Value D1N4007
SYMBOL diode 400 352 R270
WINDOW 0 32 32 VTop 2
WINDOW 3 0 32 VBottom 2
SYMATTR InstName D2
SYMATTR Value D1N4007
SYMBOL diode 176 576 R270
WINDOW 0 32 32 VTop 2
WINDOW 3 0 32 VBottom 2
SYMATTR InstName D5
SYMATTR Value D1N4007
SYMBOL diode 144 688 R180
WINDOW 0 24 64 Left 2
WINDOW 3 24 0 Left 2
SYMATTR InstName D4
SYMATTR Value D1N4007
SYMBOL res 400 576 R0
SYMATTR InstName R4
SYMATTR Value 391,76
SYMBOL cap 688 608 R0
SYMATTR InstName C4
SYMATTR Value 100n
SYMBOL cap 1200 400 R0
SYMATTR InstName C5
SYMATTR Value 100n
SYMBOL pnp 1024 352 M180
SYMATTR InstName Q3
SYMATTR Value 2SA1774
SYMBOL pnp 944 272 R180
SYMATTR InstName Q2
SYMATTR Value 2SA1774
SYMBOL res 1072 112 R0
SYMATTR InstName R1
SYMATTR Value 140
SYMBOL res 864 368 R0
SYMATTR InstName R5
SYMATTR Value 792k
SYMBOL pnp 512 624 R270
SYMATTR InstName Q1
SYMATTR Value 2SA1774
SYMBOL AutoGenerated\\DI_1N4751A 416 736 R270
WINDOW 3 -36 104 VBottom 2
SYMATTR InstName U2
SYMBOL AutoGenerated\\DI_1N4744A 1088 432 R270
WINDOW 3 -106 8 VBottom 2
SYMATTR InstName U3
SYMBOL res 1712 288 R90
WINDOW 0 0 56 VBottom 2
WINDOW 3 32 56 VTop 2
SYMATTR InstName R6
SYMATTR Value 10k
SYMBOL nmos 1904 496 M0
SYMATTR InstName M2
SYMATTR Value 2N7002
SYMBOL res 2096 368 R0
WINDOW 0 -61 44 Left 2
WINDOW 3 -61 75 Left 2
SYMATTR InstName R11
SYMATTR Value 4k
SYMBOL res 2096 512 R0
WINDOW 0 -54 41 Left 2
WINDOW 3 -58 73 Left 2
SYMATTR InstName R12
SYMATTR Value 4k
SYMBOL res 1936 112 R0
SYMATTR InstName R7
SYMATTR Value 10k
SYMBOL res 1936 240 R0
SYMATTR InstName R8
SYMATTR Value 370k
SYMBOL res 2288 112 R0
SYMATTR InstName R9
SYMATTR Value 10k
SYMBOL res 2288 240 R0
SYMATTR InstName R10
SYMATTR Value 370k
SYMBOL res 2208 96 R90
WINDOW 0 0 56 VBottom 2
WINDOW 3 32 56 VTop 2
SYMATTR InstName Rshunt
SYMATTR Value 100m
SYMBOL Opamps\\opamp2 1488 240 R0
WINDOW 3 -69 -25 Left 2
SYMATTR Value LM324
SYMATTR InstName U1
SYMBOL Opamps\\opamp2 2208 304 R90
WINDOW 3 -26 -28 Left 2
SYMATTR Value LM324
SYMATTR InstName U4
SYMBOL res 2512 160 R0
SYMATTR InstName R13
SYMATTR Value 16.5
TEXT 184 40 Left 2 !k L1 L2 L3 1
TEXT 656 0 Left 2 !.tran 200m
TEXT -56 944 Left 2 !.MODEL D1n4007 d\n+IS=7.02767e-09 RS=0.0341512 N=1.80803 EG=1.05743\n+XTI=5 BV=1000 IBV=5e-08 CJO=1e-11\n+VJ=0.7 M=0.5 FC=0.5 TT=1e-07\n+KF=0 AF=1
TEXT 696 920 Left 2 !.model IRF540   NMOS(Level=3 Gamma=0 Delta=0 Eta=0 Theta=0 Kappa=0.2 Vmax=0 Xj=0\n+      Tox=100n Uo=600 Phi=.6 Rs=21.34m Kp=20.71u W=.94 L=2u Vto=3.136\n+      Rd=22.52m Rds=444.4K Cbd=2.408n Pb=.8 Mj=.5 Fc=.5 Cgso=1.153n\n+      Cgdo=445.7p Rg=5.557 Is=2.859p N=1 Tt=142n\n+      mfg=International_Rectifier Vds=100 Ron=77m Qg=72n)\n*      Int'l Rectifier   pid=IRFC140   case=TO220\n*      88-08-25 bam   creation
TEXT 2048 832 Left 2 !* LM324 OPERATIONAL AMPLIFIER "MACROMODEL" SUBCIRCUIT\n* CREATED USING PARTS RELEASE 4.01 ON 09/08/89 AT 10:54\n* (REV N/A)      SUPPLY VOLTAGE: 5V\n* CONNECTIONS:   NON-INVERTING INPUT\n*                | INVERTING INPUT\n*                | | POSITIVE POWER SUPPLY\n*                | | | NEGATIVE POWER SUPPLY\n*                | | | | OUTPUT\n*                | | | | |\n.SUBCKT LM324    1 2 3 4 5\n*\n  C1   11 12 5.544E-12\n  C2    6  7 20.00E-12\n  DC    5 53 DX\n  DE   54  5 DX\n  DLP  90 91 DX\n  DLN  92 90 DX\n  DP    4  3 DX\n  EGND 99  0 POLY(2) (3,0) (4,0) 0 .5 .5\n  FB    7 99 POLY(5) VB VC VE VLP VLN 0 15.91E6 -20E6 20E6 20E6 -20E6\n  GA    6  0 11 12 125.7E-6\n  GCM   0  6 10 99 7.067E-9\n  IEE   3 10 DC 10.04E-6\n  HLIM 90  0 VLIM 1K\n  Q1   11  2 13 QX\n  Q2   12  1 14 QX\n  R2    6  9 100.0E3\n  RC1   4 11 7.957E3\n  RC2   4 12 7.957E3\n  RE1  13 10 2.773E3\n  RE2  14 10 2.773E3\n  REE  10 99 19.92E6\n  RO1   8  5 50\n  RO2   7 99 50\n  RP    3  4 30.31E3\n  VB    9  0 DC 0\n  VC 3 53 DC 2.100\n  VE   54  4 DC .6\n  VLIM  7  8 DC 0\n  VLP  91  0 DC 40\n  VLN   0 92 DC 40\n.MODEL DX D(IS=800.0E-18)\n.MODEL QX PNP(IS=800.0E-18 BF=250)\n.ENDS
TEXT -64 1216 Left 2 !*---------- 2N7002 Spice Model ----------\n.SUBCKT N7002 10 20 30 \n*     TERMINALS:  D  G  S\nM1 1 2 3 3 NMOS L = 1E-006 W = 1E-006 \nRD 10 1 0.976 \nRS 30 3 0.001 \nRG 20 2 160.6 \nCGS 2 3 2E-011 \nEGD 12 0 2 1 1 \nVFB 14 0 0 \nFFB 2 1 VFB 1 \nCGD 13 14 5.9E-011 \nR1 13 0 1 \nD1 12 13 DLIM \nDDG 15 14 DCGD \nR2 12 15 1 \nD2 15 0 DLIM \nDSD 3 10 DSUB \n.MODEL NMOS NMOS LEVEL = 3 VMAX = 1E+006 ETA = 0 VTO = 2.154 \n+ TOX = 6E-008 NSUB = 1E+016 KP = 0.4654 KAPPA = 1E-015 U0 = 400 \n.MODEL DCGD D CJO = 1.2E-011 VJ = 0.6 M = 0.6 \n.MODEL DSUB D IS = 6.808E-010 N = 1.576 RS = 0.1408 BV = 72 CJO = 8E-012 VJ = 0.8 M = 0.6474 \n.MODEL DLIM D IS = 0.0001 \n.ENDS\n*Diodes N7002 Spice Model v0 Last Revised 2017/2/9
TEXT 1352 -152 Left 2 ;Aluno: Yuri Marques Barboza\nTurma: Engenharia Eletrônica\nClasse: Eletrônica I
